[TANK]
N9	-58.45	0.5
[JUNCTIONS]
N3	38.66	0.2
N5	38.29	0.2
N7	33.74	0.2
[PIPES]
[JUNDEMANDS]
N1	3.983334547418441	0.56036055171714
N2	5.593261008183509	0.7157211323392522
N3	11.542977546351846	1.3517292228822455
N4	1.6702228938755483	0.1933986303411792
N5	7.299131721268515	1.0859128584452615
N6	7.239284679751986	0.9863627709121724
N7	8.86244509889478	1.0803869076627264
N8	13.625893815999328	1.3612667534257405
