[TANK]
N9	-58.45	0.5
[JUNCTIONS]
N3	38.66	0.03566724886109975
N5	38.29	0.05120484111112237
N7	33.74	0.04242976498438085
[PIPES]
[JUNDEMANDS]
N1	3.9645239564802757	0.5600707638382962
N2	5.578779610462455	0.7155910414627215
N3	12.54854282402191	1.2827740175020204
N4	1.6699590149981554	0.1933985417645591
N5	6.7910522495829655	1.0515652220445204
N6	7.217309607628204	0.9836063322591255
N7	8.959911435290817	1.0652426534181116
N8	13.525636200086792	1.3711454312980587
